&NAM_REAL_PGD /
&NAM_DIMn_PRE NIMAX=256, NJMAX=256 /
&NAM_CONF_PRE LCARTESIAN=.TRUE., NVERB=10,
              CIDEAL='RSOU',  CZS='FLAT', LFORCING=.T.,
              LBOUSS=.FALSE., CEQNSYS='DUR', LPERTURB=.TRUE. /
&NAM_PERT_PRE CPERT_KIND='WH',XAMPLIWH=0.1 /
&NAM_CONFn LUSERV=.TRUE. , LUSERC=.TRUE./
&NAM_GRID_PRE XLAT0=28.7 , XLON0=-81./
&NAM_GRIDH_PRE XDELTAX=25., XDELTAY=25. /
&NAM_VER_GRID  LTHINSHELL=.TRUE., NKMAX=160,
	       ZDZGRD=25., ZDZTOP=25.,
               ZZMAX_STRGRD=1000. , ZSTRGRD=0., ZSTRTOP=0. /
&NAM_LUNITn CINIFILE='SCM_3D_25m',
            CINIFILEPGD='SCM_PGD' /
&NAM_POST_PRE /
&NAM_DYNn_PRE  /
&NAM_LBCn_PRE CLBCX=2*"CYCL", CLBCY=2*"CYCL" / 
&NAM_VPROF_PRE /
&NAM_GRn_PRE CSURF='EXTE'/
&NAM_CH_MNHCn_PRE /
&NAM_BLANK /
&NAM_PGD_SCHEMES CSEA='FLUX' /
&NAM_COVER XUNIF_COVER(1)=1. /
RSOU
1995 8 5 43200.
'ZUVTHLMR'
0.
102100.00
297.1600
0.0177858069769
2
0.    -4. 4.  
4980. -4. 4.
126
20.		297.244		0.0177858069769
60.		297.412		0.017734015211
100.		297.580		0.0176822287241
140.		297.748		0.017630447503
180.		297.916		0.017578671551
220.		298.084		0.0175269008674
260.		298.252		0.0174751354514
300.		298.420		0.017423375302
340.		298.588		0.0173716204186
380.		298.756		0.0173198708004
420.		298.924		0.0172681264464
460.		299.092		0.017216387356
500.		299.260		0.0171646535283
540.		299.428		0.0171129249625
580.		299.596		0.0170612016578
620.		299.764		0.0170094836134
660.		299.932		0.0169577708286
700.		300.100		0.0169060633024
740.		300.268		0.0168543610341
780.		300.436		0.016802664023
820.		300.604		0.0166734444896
860.		300.772		0.0164667615369
900.		300.940		0.0162601626016
940.		301.108		0.0160536476326
980.		301.276		0.0158472165786
1020.		301.444		0.0156408693886
1060.		301.612		0.0154346060114
1100.		301.780		0.0152284263959
1140.		301.948		0.0150223304913
1180.		302.116		0.0148163182464
1220.		302.284		0.0146103896104
1260.		302.452		0.0144045445324
1300.		302.620		0.0141987829615
1340.		302.788		0.0139931048469
1380.		302.956		0.0137875101379
1420.		303.124		0.0135819987837
1460.		303.292		0.0133765707337
1500.		303.460		0.0131712259372
1540.		303.860		0.0124873097372
1580.		304.260		0.0118044186106
1620.		304.660		0.0111223458038
1660.		305.060		0.010441191969
1700.		305.460		0.00976105721175
1740.		305.860		0.00908173562059
1780.		306.260		0.00840332744863
1820.		306.660		0.00772593240598
1860.		307.060		0.00704934541793
1900.		307.460		0.00637366634104
1940.		307.860		0.00569899449209
1980.		308.260		0.00502512562814
2020.		308.660		0.00435215921151
2060.		309.060		0.00368019416796
2100.		309.460		0.00300902708124
2140.		309.860		0.00300902708124
2180.		310.260		0.00300902708124
2220.		310.600		0.00300902708124
2260.		310.680		0.00300902708124
2300.		310.760		0.00300902708124
2340.		310.840		0.00300902708124
2380.		310.920		0.00300902708124
2420.		311.000		0.00300902708124
2460.		311.080		0.00300902708124
2500.		311.160		0.00300902708124
2540.		311.240		0.00300902708124
2580.		311.320		0.00300902708124
2620.		311.400		0.00300902708124
2660.		311.480		0.00300902708124
2700.		311.560		0.00300902708124
2740.		311.640		0.00300902708124
2780.		311.720		0.00300902708124
2820.		311.800		0.00300902708124
2860.		311.880		0.00300902708124
2900.		311.960		0.00300902708124
2940.		312.040		0.00300902708124
2980.		312.120		0.00300902708124
3020.		312.200		0.00300902708124
3060.		312.280		0.00300902708124
3100.		312.360		0.00300902708124
3140.		312.440		0.00300902708124
3180.		312.520		0.00300902708124
3220.		312.600		0.00300902708124
3260.		312.680		0.00300902708124
3300.		312.760		0.00300902708124
3340.		312.840		0.00300902708124
3380.		312.920		0.00300902708124
3420.		313.000		0.00300902708124
3460.		313.080		0.00300902708124
3500.		313.160		0.00300902708124
3540.		313.240		0.00300902708124
3580.		313.320		0.00300902708124
3620.		313.400		0.00300902708124
3660.		313.480		0.00300902708124
3700.		313.560		0.00300902708124
3740.		313.640		0.00300902708124
3780.		313.720		0.00300902708124
3820.		313.800		0.00300902708124
3860.		313.880		0.00300902708124
3900.		313.960		0.00300902708124
3940.		314.040		0.00300902708124
3980.		314.120		0.00300902708124
4020.		314.200		0.00300902708124
4060.		314.280		0.00300902708124
4100.		314.360		0.00300902708124
4140.		314.440		0.00300902708124
4180.		314.520		0.00300902708124
4220.		314.600		0.00300902708124
4260.		314.680		0.00300902708124
4300.		314.760		0.00300902708124
4340.		314.840		0.00300902708124
4380.		314.920		0.00300902708124
4420.		315.000		0.00300902708124
4460.		315.080		0.00300902708124
4500.		315.160		0.00300902708124
4540.		315.240		0.00300902708124
4580.		315.320		0.00300902708124
4620.		315.400		0.00300902708124
4660.		315.480		0.00300902708124
4700.		315.560		0.00300902708124
4740.		315.640		0.00300902708124
4780.		315.720		0.00300902708124
4820.		315.800		0.00300902708124
4860.		315.880		0.00300902708124
4900.		315.960		0.00300902708124
4940.		316.040		0.00300902708124
4980.		316.120		0.00300902708124
ZFRC
1
1995 8 5 43200.
0.
102100.00
297.1600
0.0177858069769
3
   0.  -4.   4. 0. 0. 0. -0.0000347 0.
1500.  -4.   4. 0. 0. 0. 0. 0.
4980.  -4.   4. 0. 0. 0. 0. 0.
