&NAM_CONFIO      LCDF4=.TRUE.,                         ! Read and write files in netcdf format
                 LLFIOUT=.FALSE.                       ! Write files in LFI format
                 LVERB_OUTLST=.TRUE.                   ! Write application messages in OUTPUT files
                 LVERB_STDOUT=.FALSE. /                ! Write application messages on the standard output
&NAM_CONF_PRE    LCARTESIAN=.TRUE.,                      ! Geometry is cartesian
                 NVERB=10,                               ! Verbosity level = quantity of information written in OUTPUT files (possible values are 1, 5 or 10)
                 CIDEAL='RSOU',                          ! Initialisation made by radio-souding case
                 CZS='FLAT',                             ! Constant orography (zero by default)
                 LFORCING=.FALSE.,                       ! Specify forcing sources
                 LBOUSS=.FALSE.,                         ! The reference anelastic state varies with the altitude
                 LPERTURB=.TRUE.,                        ! Add an initial perturbation of horizontal fields
                 NHALO=1,                                ! Size of the halo for parallel distribution
                 JPHEXT=1,                               ! Horizontal external points number
                 CEQNSYS='DUR' /                         ! The system of equations resolved is an approximated form of the Duran version of the anelastic system
&NAM_CONFn       LUSERV=.TRUE.,                        ! Use vapor mixing ratio
                 LUSECI=.FALSE.,                       ! Use pristine ice
                 LUSERC=F,                             ! Use cloud mixing ratio
                 LUSERR=.FALSE.,                       ! Use rain mixing ratio
                 LUSERI=.FALSE.,                       ! Use ice mixing ratio
                 LUSERS=.FALSE.,                       ! Use snow mixing ratio
                 LUSERG=.FALSE.,                       ! Use graupel mixing ratio
                 LUSERH=.FALSE.,                       ! Use hail mixing ratio
                 NSV_USER=0 /                          ! Number of passive scalar variables
&NAM_CONFZ       NB_PROCIO_W=1,                          ! Number of processors for writing processes
                 MPI_BUFFER_SIZE=2048,                   ! Buffer size (2048 = maximum)
                 NZ_VERB=5 /                             ! Verbosity level
&NAM_DIMn_PRE    NIMAX=1600,                           ! Number of mass points in x-axis direction
                 NJMAX=1600 /                          ! Number of mass points in y-axis direction
&NAM_DYNn_PRE    CPRESOPT ='ZRESI',                      ! Type of pressure solver used for the elliptic equation
                 NITR=20 /                               ! Number of iterations used for the resolution of the elliptic equation
&NAM_GRID_PRE    XLAT0=45.                             ! Reference latitude for conformal projection
                 XLON0=0. /                            ! Reference longitude for conformal projection
&NAM_GRIDH_PRE   XDELTAX=50.,                            ! Mesh length in x direction (in meters)
                 XDELTAY=50. /                           ! Mesh length in y direction (in meters)
&NAM_GRn_PRE     CSURF='EXTE'/                         ! The externalized surface is used
&NAM_LBCn_PRE    CLBCX=2*'CYCL',                         ! Cyclic boundary conditions on both x sides
                 CLBCY=2*'CYCL' /                        ! Cyclic boundary conditions on both y sides
&NAM_LUNITn      CINIFILE='HUM25_INITIAL_CONDITIONS',  ! Name of the initial file produced by prep_ideal_case
                 CINIFILEPGD='HUM25_PGD' /               ! Name of the PGD file
&NAM_PERT_PRE    CPERT_KIND='WH',                      ! Type of perturbation = white noise perturbation applied to theta
                 LSET_RHU=.TRUE.,                      ! The relative humidity is conserved in the theta perturbation
                 XAMPLIUV=0.0,                         ! Maximum perturbation for u and v
                 NKWH=20,                              ! Upper level of the layer starting from the ground where the white noise is applied
                 XAMPLIWH=0.2 /                        ! Maximum perturbation for the normalized white noise
&NAM_REAL_PGD /                                          ! PGD filename must be set to '' for a purely ideal case (made by default)
&NAM_VER_GRID    LTHINSHELL=.TRUE.,                    ! Thinshell approximation is used
                 NKMAX=292,                            ! Number of points in z-direction (i.e. number of vertical layers)
                 YZGRID_TYPE='MANUAL' /                ! Levels are given manually
&NAM_VPROF_PRE   LGEOSBAL=.FALSE.,                       ! Geostrophic balance not satisfied by initial fields
                 CFUNU='ZZZ',                            ! u values are taken from radiosounding
                 CFUNV='ZZZ',                            ! v values are taken from radiosounding
                 CTYPELOC='XYHATM'/                      ! (x, y) coordinates are used to give the localisation of vertical profile
&NAM_PGD_SCHEMES CSEA='FLUX' /                         ! Surface fluxes imposed
&NAM_COVER       XUNIF_COVER(1)=1. /                     ! Uniform cover

ZHAT                                                   ! Definition of altitude of vertical levels (in meters)
0.0
    50.00000    
    100.0000    
    150.0000    
    200.0000    
    250.0000    
    300.0000    
    350.0000    
    400.0000    
    450.0000    
    500.0000    
    550.0000    
    600.0000    
    650.0000    
    700.0000    
    750.0000    
    800.0000    
    850.0000    
    900.0000    
    950.0000    
    1000.000    
    1050.000    
    1100.000    
    1150.000    
    1200.000    
    1250.000    
    1300.000    
    1350.000    
    1400.000    
    1450.000    
    1500.000    
    1550.000    
    1600.000    
    1650.000    
    1700.000    
    1750.000    
    1800.000    
    1850.000    
    1900.000    
    1950.000    
    2000.000    
    2050.000    
    2100.000    
    2150.000    
    2200.000    
    2250.000    
    2300.000    
    2350.000    
    2400.000    
    2450.000    
    2500.000    
    2550.000    
    2600.000    
    2650.000    
    2700.000    
    2750.000    
    2800.000    
    2850.000    
    2900.000    
    2950.000    
    3000.000    
    3050.000    
    3100.000    
    3150.000    
    3200.000    
    3250.000    
    3300.000    
    3350.000    
    3400.000    
    3450.000    
    3500.000    
    3550.000    
    3600.000    
    3650.000    
    3700.000    
    3750.000    
    3800.000    
    3850.000    
    3900.000    
    3950.000    
    4000.000    
    4050.000    
    4100.000    
    4150.000    
    4200.000    
    4250.000    
    4300.000    
    4350.000    
    4400.000    
    4450.000    
    4500.000    
    4550.000    
    4600.000    
    4650.000    
    4700.000    
    4750.000    
    4800.000    
    4850.000    
    4900.000    
    4950.000    
    5000.000    
    5050.000    
    5100.000    
    5150.000    
    5200.000    
    5250.000    
    5300.000    
    5350.000    
    5400.000    
    5450.000    
    5500.000    
    5550.000    
    5600.000    
    5650.000    
    5700.000    
    5750.000    
    5800.000    
    5850.000    
    5900.000    
    5950.000    
    6000.000    
    6050.000    
    6100.000    
    6150.000    
    6200.000    
    6250.000    
    6300.000    
    6350.000    
    6400.000    
    6450.000    
    6500.000    
    6550.000    
    6600.000    
    6650.000    
    6700.000    
    6750.000    
    6800.000    
    6850.000    
    6900.000    
    6950.000    
    7000.000    
    7050.000    
    7100.000    
    7150.000    
    7200.000    
    7250.000    
    7300.000    
    7350.000    
    7400.000    
    7450.000    
    7500.000    
    7550.000    
    7600.000    
    7650.000    
    7700.000    
    7750.000    
    7800.000    
    7850.000    
    7900.000    
    7950.000    
    8000.000    
    8050.000    
    8100.000    
    8150.000    
    8200.000    
    8250.000    
    8300.000    
    8350.000    
    8400.000    
    8450.000    
    8500.000    
    8550.000    
    8600.000    
    8650.000    
    8700.000    
    8750.000    
    8800.000    
    8850.000    
    8900.000    
    8950.000    
    9000.000    
    9050.000    
    9100.000    
    9150.000    
    9200.000    
    9250.000    
    9300.000    
    9350.000    
    9400.000    
    9450.000    
    9500.000    
    9550.000    
    9600.000    
    9650.000    
    9700.000    
    9750.000    
    9800.000    
    9850.000    
    9900.000    
    9950.000    
    10000.00    
    10050.00    
    10100.00    
    10150.00    
    10200.00    
    10250.00    
    10300.00    
    10350.00    
    10400.00    
    10450.00    
    10500.00    
    10550.00    
    10600.00    
    10650.00    
    10700.00    
    10750.00    
    10800.00    
    10850.00    
    10900.00    
    10950.00    
    11000.00    
    11050.00    
    11100.00    
    11150.00    
    11200.00    
    11250.00    
    11300.00    
    11350.00    
    11400.00    
    11450.00    
    11500.00    
    11550.00    
    11600.00    
    11650.00    
    11700.00    
    11750.00    
    11800.00    
    11850.00    
    11900.00    
    11950.00    
    12000.00    
    12050.00    
    12100.00    
    12150.00    
    12200.00    
    12250.00    
    12300.00    
    12350.00    
    12400.00    
    12450.00    
    12500.00    
    12550.00    
    12600.00    
    12650.00    
    12700.00    
    12750.00    
    12800.00    
    12850.00    
    12900.00    
    12950.00    
    13000.00    
    13050.00    
    13104.00    
    13162.32    
    13225.31    
    13293.33    
    13366.80    
    13446.14    
    13531.84    
    13624.38    
    13724.34    
    13832.29    
    13948.87    
    14074.78    
    14210.76    
    14357.63    
    14516.24    
    14687.54    
    14872.55    
    15072.35    
    15288.15    
    15521.20    
    15772.90    
    16044.73    
    16338.32    
    16655.38    
    16997.82    
    17367.65    
    17767.06    
    18198.43    
    18664.30    
    19167.45    
    19710.85
    20297.72    

RSOU                                                   ! Radiosounding definition
2007 01 31 36000.                                      ! Year, month, day, time
'STANDARD'                                             ! Type of radiosounding
0.                                                     ! Height of ground level (m)
100000.                                                ! Pressure at ground level (Pa)
300.00                                                 ! Temperature AGL
289.51                                                 ! Dew point temperature AGL
61
  98902.42828596172      184.05405405405406      0.9190683534759306
  97744.95994805175      188.3783783783784       1.8942260735607486
  96672.13891576389      192.43243243243242      2.798745829686174
  95540.7719524624       196.75675675675677      3.748019473538883
  94492.14346413837      200.8108108108108       4.618683458498117
  93386.28927899383      205.13513513513513      5.521810570692621
  92293.37705319078      209.45945945945945      6.393498837263743
  91280.39105272427      213.51351351351352      7.177737402589912
  90212.12443534572      217.83783783783784      7.974573545466603
  89156.35988497896      222.16216216216216      8.726005851431735
  88112.95108826271      225.04364333860184      9.199398188748178
  87145.84826071355      225.1623329883446       9.218543513890383
  86125.96875026882      225.28839251067103      9.239008609742807
  85118.02502605581      225.41389420035483      9.259518230829089
  84121.87740197292      225.53884055563105      9.280072081937407
  83137.38782668361      225.6632340738024       9.300669869831697
  82164.41986448456      225.7870772509687       9.321311303243743
  81202.83867639778      225.91037258176175      9.341996092865122
  80252.51100148381      226.03312255908696      9.362723951339063
  79254.97107146733      226.16294965063443      9.38479417243427
  78327.43955149336      226.28458270078954      9.405609961187272
  77410.76305687506      226.40567801863955      9.426467950815804
  76504.81454979982      226.5262380875396       9.447367861805372
  75553.85854356943      226.6537494611574       9.469619640120769
  74669.6416382144       226.77321340918687      9.49060513930669
  73741.49685913374      226.89956574843018      9.512947234374998
  72878.49026481889      227.01794409795212      9.53401715746487
  71972.60952449999      227.14314856597713      9.556448340993805
  71130.30445509865      227.26045180670167      9.577601540159879
  70246.15369093281      227.38451953000757      9.600120601263406
  69424.05356491644      227.50075811534415      9.621355944977282
  68561.11152521719      227.6237001799994       9.643961689998527
  67708.89586817124      227.74606667215204      9.666611630112925
  66867.27326467936      227.86786051584045      9.689305455386124
  66036.11204292509      227.98908462850042      9.71204285818292
  65263.282597045734     228.10266007145066      9.733482301043741
  64452.05900363943      228.22278653816713      9.75630342586877
  63650.91893181388      228.34235181416625      9.779167236609224
  62859.73704324279      228.4613587887359       9.802073434564218
  62078.38955755712      228.5798103435137       9.825021723267255
  61306.75423297972      228.69770935229369      9.84801180847297
  60500.180376118595     228.82194452556115      9.872399483857315
  59748.16221562437      228.93871495419188      9.895474703560106
  59005.49165228105      229.05494157663202      9.918590833369198
  58272.052495314165     229.17062723297565      9.941747587917257
  57505.40427332957      229.2925314400535       9.966310469346137
  56790.61122525503      229.40711224814362      9.989549973659665
  56084.703065618916     229.5211607226027       10.012829243133773
  55346.83240473482      229.64134082130303      10.037520916564747
  54658.87043775497      229.75430213258207      10.060881186514832
  53939.758547193705     229.87333737626778      10.085658011481035
  53230.1075530433       229.9917886915195       10.1104781551261
  52568.456508102776     230.1031261663756       10.133958890703779
  51876.846860104684     230.22045144662886      10.15886235639937
  51194.33627905619      230.33720242368693      10.183808211048023
  50557.98990195521      230.44694282819702      10.207406826765554
  49892.83068058464      230.5625863795669       10.232434217101256
  49236.42253477367      230.6776651426653       10.257503088610605
  48588.650332203644     230.79218232323888      10.282613137901986
  47949.40045527834      230.9061411137705       10.307764064044152
  5414.34        230.9061411137705       10.307764064044152


204                                                    ! Number of mass data levels
  98873.93        299.14          289.36               ! Pressure coordinate (Pa), temperature (K) and dew point temperature (K)
  97757.27        298.32          289.2
  96650.23        297.52          289.04
  95552.82        296.73          288.88
  94465.03        295.96          288.72
  93386.84        295.19          288.56
  92318.21        294.43          288.4
  91259.12        293.68          288.23
  90209.53        292.94          288.07
  89169.39        292.2           287.9
  88138.66        291.46          287.74
  87117.3         290.73          287.57
  86105.27        290.01          287.4
  85102.51        289.29          287.24
  84108.97        288.57          287.07
  83124.61        287.85          286.89
  82149.23        287.14          286.11
  81182.66        286.43          285.33
  80224.87        285.73          284.55
  79275.82        285.03          283.77
  78335.46        284.32          282.99
  77403.76        283.62          282.22
  76480.67        282.93          281.44
  75566.16        282.23          280.67
  74660.18        281.54          279.9
  73762.69        280.84          279.13
  72873.63        280.15          278.36
  71992.97        279.46          277.59
  71120.67        278.78          276.83
  70256.66        278.09          276.06
  69400.91        277.4           275.3
  68553.37        276.72          274.54
  67713.98        276.04          273.77
  66882.71        275.35          273.01
  66059.5         274.67          272.25
  65244.3         273.99          271.49
  64437.06        273.31          270.73
  63637.73        272.63          269.97
  62846.27        271.96          269.21
  62062.61        271.28          268.45
  61286.72        270.6           267.69
  60518.53        269.93          266.93
  59758.0         269.25          266.18
  59005.08        268.58          265.42
  58259.71        267.9           264.66
  57521.84        267.23          263.91
  56791.43        266.56          263.15
  56068.41        265.88          262.4
  55352.74        265.21          261.64
  54644.36        264.54          260.88
  53943.23        263.87          260.13
  53249.28        263.19          259.37
  52562.48        262.52          258.62
  51882.76        261.85          257.86
  51210.08        261.18          257.11
  50544.38        260.51          256.35
  49885.61        259.84          255.6
  49233.72        259.17          254.84
  48588.66        258.5           254.09
  47950.37        257.83          253.33
  47318.8         257.16          252.58
  46693.91        256.49          251.82
  46075.64        255.82          251.06
  45463.94        255.15          250.31
  44858.75        254.48          249.55
  44260.04        253.81          248.79
  43667.74        253.14          248.04
  43081.8         252.47          247.28
  42502.18        251.8           246.52
  41928.82        251.13          245.76
  41361.68        250.46          245.0
  40800.7         249.79          244.25
  40245.84        249.12          243.49
  39697.04        248.45          242.73
  39154.26        247.77          241.97
  38617.44        247.1           241.2
  38086.53        246.43          240.44
  37561.5         245.76          239.68
  37042.28        245.09          238.92
  36528.83        244.41          238.15
  36021.1         243.74          237.39
  35519.05        243.07          236.62
  35022.62        242.4           235.86
  34531.77        241.72          235.09
  34046.45        241.05          234.32
  33566.61        240.37          233.56
  33092.21        239.7           232.79
  32623.2         239.02          232.02
  32159.53        238.35          231.24
  31701.16        237.67          230.47
  31248.03        237.0           229.7
  30800.11        236.32          228.92
  30357.35        235.64          228.15
  29919.71        234.97          227.37
  29487.13        234.29          226.59
  29059.57        233.61          225.81
  28637.0         232.93          225.03
  28219.36        232.25          224.25
  27806.61        231.57          223.46
  27398.7         230.89          222.68
  26995.6         230.21          221.89
  26597.26        229.53          221.1
  26203.64        228.85          220.31
  25814.69        228.16          219.52
  25430.37        227.48          218.72
  25050.64        226.8           217.92
  24675.46        226.11          217.13
  24304.79        225.43          216.32
  23938.57        224.74          215.52
  23576.79        224.06          214.71
  23219.38        223.37          213.9
  22866.31        222.68          213.09
  22517.55        221.99          212.28
  22173.04        221.31          211.46
  21832.76        220.62          210.64
  21496.66        219.93          209.81
  21164.69        219.24          208.99
  20836.83        218.55          208.15
  20513.04        217.85          207.32
  20193.27        217.16          206.48
  19878.0         217.18          206.49
  19567.67        217.2           206.51
  19262.22        217.22          206.53
  18961.57        217.24          206.54
  18665.63        217.26          206.56
  18374.34        217.28          206.58
  18087.62        217.3           206.6
  17805.4         217.32          206.61
  17527.61        217.34          206.63
  17254.18        217.36          206.65
  16985.04        217.38          206.67
  16720.12        217.4           206.69
  16459.35        217.42          206.7
  16202.68        217.44          206.72
  15950.03        217.46          206.74
  15701.35        217.48          206.76
  15456.57        217.5           206.78
  15215.62        217.52          206.79
  14978.46        217.54          206.81
  14745.01        217.56          206.83
  14515.22        217.58          206.85
  14289.04        217.6           206.87
  14066.4         217.62          206.89
  13847.25        217.65          206.91
  13631.54        217.67          206.93
  13419.21        217.69          206.94
  13210.21        217.71          206.96
  13004.48        217.73          206.98
  12801.98        217.75          207.0
  12602.64        217.77          207.02
  12406.44        217.8           207.04
  12213.3         217.82          207.06
  12023.2         217.84          207.08
  11836.07        217.86          207.1
  11651.87        217.89          207.12
  11470.56        217.91          207.14
  11292.09        217.93          207.16
  11116.41        217.95          207.18
  10943.48        217.98          207.2
  10773.26        218.0           207.22
  10605.71        218.02          207.24
  10440.78        218.05          207.26
  10278.43        218.07          207.28
  10118.62        218.09          207.3
  9961.32         218.12          207.32
  9806.48         218.14          207.34
  9654.06         218.16          207.37
  9504.02         218.19          207.39
  9356.33         218.21          207.41
  9210.96         218.23          207.43
  9067.86         218.26          207.45
  8926.99         218.28          207.47
  8788.34         218.31          207.49
  8651.85         218.33          207.52
  8517.49         218.36          207.54
  8385.24         218.38          207.56
  8255.05         218.41          207.58
  8126.9          218.43          207.6
  8000.76         218.45          207.63
  7876.58         218.48          207.65
  7754.35         218.51          207.67
  7634.03         218.53          207.69
  7515.59         218.56          207.72
  7399.0          218.58          207.74
  7284.23         218.61          207.76
  7171.25         218.63          207.78
  7060.05         218.66          207.81
  6950.57         218.69          207.83
  6842.81         218.71          207.85
  6736.74         218.74          207.88
  6632.32         218.76          207.9
  6529.53         218.79          207.92
  6428.34         218.82          207.95
  6328.74         218.84          207.97
  6230.69         218.87          208.0
  6134.17         218.9           208.02
  6039.16         218.93          208.04
  5945.63         218.95          208.07
  5853.57         218.98          208.09
  5762.94         219.01          208.12
  5673.72         219.03          208.14
  5585.9          219.06          208.17
  5499.44         219.09          208.19
  5414.34         219.12          208.22










ZFRC                                                   ! The altitude of forcing data will be given in meters
2                                                      ! Number of forcings
2007 01 31 30000.                                      ! Date of forcing (YMDT)
0.                                                     ! Ground height (m)
100000.                                                ! Ground pressure (Pa)
300.                                                   ! Temperature AGL (K)
0.012                                                  ! Surface mixing ratio (kg/kg)
11                                                     ! Number of levels
0.      0.  0.  0.  0.  0.          0.    0.   0.  0.  ! Height (m), forcing terms...
1000.   0.  0.  0.  0.  0.          0.    0.   0.  0.
1400.   0.  0.  0.  0.  0.          0.    0.   0.  0.
2000.   0.  0.  0.  0.  0.          0.    0.   0.  0.
3000.   0.  0.  0.  0.  0.          0.    0.   0.  0.
5000.   0.  0.  0.  0.  0.          0.    0.   0.  0.
5700.   0.  0.  0.  0.  0.          0.    0.   0.  0.
6000.   0.  0.  0.  0.  0.          0.    0.   0.  0.
7300.   0.  0.  0.  0.  0.          0.    0.   0.  0.
10000.  0.  0.  0.  0.  0.          0.    0.   0.  0.
15000.  0.  0.  0.  0.  0.          0.    0.   0.  0.

2007 01 31 72000.                                      ! Same as previously, repated at a time t > t_end of simulation
0.
100000.
300.
0.012
11
0.      0.  0.  0.  0.  0.          0.    0.   0.  0.
1000.   0.  0.  0.  0.  0.          0.    0.   0.  0.
1400.   0.  0.  0.  0.  0.          0.    0.   0.  0.
2000.   0.  0.  0.  0.  0.          0.    0.   0.  0.
3000.   0.  0.  0.  0.  0.          0.    0.   0.  0.
5000.   0.  0.  0.  0.  0.          0.    0.   0.  0.
5700.   0.  0.  0.  0.  0.          0.    0.   0.  0.
6000.   0.  0.  0.  0.  0.          0.    0.   0.  0.
7300.   0.  0.  0.  0.  0.          0.    0.   0.  0.
10000.  0.  0.  0.  0.  0.          0.    0.   0.  0.
15000.  0.  0.  0.  0.  0.          0.    0.   0.  0.

